64

C       0.000000000000000      0.000000000000000      0.000000000000000
C       0.000000000000000      2.182000000000000      2.182000000000000
C       2.182000000000000      0.000000000000000      2.182000000000000
C       2.182000000000000      2.182000000000000      0.000000000000000
Si      3.273000000000000      3.273000000000000      3.273000000000000
Si      1.091000000000000      1.091000000000000      3.273000000000000
Si      1.091000000000000      3.273000000000000      1.091000000000000
Si      3.273000000000000      1.091000000000000      1.091000000000000
C       0.000000000000000      0.000000000000000      4.364000000000000
C       0.000000000000001      2.182000000000000      6.545999999999999
C       2.182000000000000      0.000000000000000      6.545999999999999
C       2.182000000000000      2.182000000000000      4.364000000000000
Si      3.273000000000000      3.273000000000000      7.637000000000000
Si      1.091000000000000      1.091000000000000      7.637000000000000
Si      1.091000000000000      3.273000000000000      5.455000000000000
Si      3.273000000000000      1.091000000000000      5.455000000000000
C       0.000000000000000      4.364000000000000      0.000000000000000
C       0.000000000000001      6.545999999999999      2.182000000000000
C       2.182000000000000      4.364000000000000      2.182000000000000
C       2.182000000000000      6.545999999999999      0.000000000000000
Si      3.273000000000000      7.637000000000000      3.273000000000000
Si      1.091000000000000      5.455000000000000      3.273000000000000
Si      1.091000000000000      7.637000000000000      1.091000000000000
Si      3.273000000000000      5.455000000000000      1.091000000000000
C       0.000000000000001      4.364000000000000      4.364000000000000
C       0.000000000000001      6.545999999999999      6.545999999999999
C       2.182000000000000      4.364000000000000      6.545999999999999
C       2.182000000000000      6.545999999999999      4.364000000000000
Si      3.273000000000000      7.637000000000000      7.637000000000000
Si      1.091000000000001      5.455000000000000      7.637000000000000
Si      1.091000000000001      7.637000000000000      5.455000000000000
Si      3.273000000000000      5.455000000000000      5.455000000000000
C       4.364000000000000      0.000000000000000      0.000000000000000
C       4.364000000000000      2.182000000000000      2.182000000000000
C       6.545999999999999      0.000000000000000      2.182000000000000
C       6.545999999999999      2.182000000000000      0.000000000000000
Si      7.637000000000000      3.273000000000000      3.273000000000000
Si      5.455000000000000      1.091000000000000      3.273000000000000
Si      5.455000000000000      3.273000000000000      1.091000000000000
Si      7.637000000000000      1.091000000000000      1.091000000000000
C       4.364000000000000      0.000000000000000      4.364000000000000
C       4.364000000000000      2.182000000000000      6.545999999999999
C       6.545999999999999      0.000000000000000      6.545999999999999
C       6.545999999999999      2.182000000000000      4.364000000000000
Si      7.637000000000000      3.273000000000000      7.637000000000000
Si      5.455000000000000      1.091000000000000      7.637000000000000
Si      5.455000000000000      3.273000000000000      5.455000000000000
Si      7.637000000000000      1.091000000000000      5.455000000000000
C       4.364000000000000      4.364000000000000      0.000000000000000
C       4.364000000000000      6.545999999999999      2.182000000000000
C       6.545999999999999      4.364000000000000      2.182000000000000
C       6.545999999999999      6.545999999999999      0.000000000000000
Si      7.637000000000000      7.637000000000000      3.273000000000000
Si      5.455000000000000      5.455000000000000      3.273000000000000
Si      5.455000000000000      7.637000000000000      1.091000000000000
Si      7.637000000000000      5.455000000000000      1.091000000000000
C       4.364000000000000      4.364000000000000      4.364000000000000
C       4.364000000000000      6.545999999999999      6.545999999999999
C       6.545999999999999      4.364000000000000      6.545999999999999
C       6.545999999999999      6.545999999999999      4.364000000000000
Si      7.637000000000000      7.637000000000000      7.637000000000000
Si      5.455000000000000      5.455000000000000      7.637000000000000
Si      5.455000000000000      7.637000000000000      5.455000000000000
Si      7.637000000000000      5.455000000000000      5.455000000000000
